* NGSPICE file created from panamax.ext - technology: sky130A

.subckt sky130_fd_sc_hd__buf_16 A VGND VNB VPB VPWR X
X0 VGND A a_109_47# VNB sky130_fd_pr__nfet_01v8 ad=0.08775 pd=0.92 as=0.08775 ps=0.92 w=0.65 l=0.15
X1 X a_109_47# VPWR VPB sky130_fd_pr__pfet_01v8_hvt ad=0.135 pd=1.27 as=0.135 ps=1.27 w=1 l=0.15
X2 VGND a_109_47# X VNB sky130_fd_pr__nfet_01v8 ad=0.08775 pd=0.92 as=0.08775 ps=0.92 w=0.65 l=0.15
X3 VGND a_109_47# X VNB sky130_fd_pr__nfet_01v8 ad=0.08775 pd=0.92 as=0.08775 ps=0.92 w=0.65 l=0.15
X4 X a_109_47# VPWR VPB sky130_fd_pr__pfet_01v8_hvt ad=0.135 pd=1.27 as=0.135 ps=1.27 w=1 l=0.15
X5 VGND a_109_47# X VNB sky130_fd_pr__nfet_01v8 ad=0.08775 pd=0.92 as=0.08775 ps=0.92 w=0.65 l=0.15
X6 VPWR a_109_47# X VPB sky130_fd_pr__pfet_01v8_hvt ad=0.135 pd=1.27 as=0.135 ps=1.27 w=1 l=0.15
X7 a_109_47# A VPWR VPB sky130_fd_pr__pfet_01v8_hvt ad=0.135 pd=1.27 as=0.135 ps=1.27 w=1 l=0.15
X8 X a_109_47# VPWR VPB sky130_fd_pr__pfet_01v8_hvt ad=0.135 pd=1.27 as=0.135 ps=1.27 w=1 l=0.15
X9 VPWR A a_109_47# VPB sky130_fd_pr__pfet_01v8_hvt ad=0.135 pd=1.27 as=0.135 ps=1.27 w=1 l=0.15
X10 X a_109_47# VGND VNB sky130_fd_pr__nfet_01v8 ad=0.08775 pd=0.92 as=0.08775 ps=0.92 w=0.65 l=0.15
X11 X a_109_47# VGND VNB sky130_fd_pr__nfet_01v8 ad=0.08775 pd=0.92 as=0.08775 ps=0.92 w=0.65 l=0.15
X12 X a_109_47# VGND VNB sky130_fd_pr__nfet_01v8 ad=0.08775 pd=0.92 as=0.08775 ps=0.92 w=0.65 l=0.15
X13 X a_109_47# VGND VNB sky130_fd_pr__nfet_01v8 ad=0.08775 pd=0.92 as=0.08775 ps=0.92 w=0.65 l=0.15
X14 a_109_47# A VPWR VPB sky130_fd_pr__pfet_01v8_hvt ad=0.135 pd=1.27 as=0.135 ps=1.27 w=1 l=0.15
X15 VPWR a_109_47# X VPB sky130_fd_pr__pfet_01v8_hvt ad=0.135 pd=1.27 as=0.135 ps=1.27 w=1 l=0.15
X16 X a_109_47# VGND VNB sky130_fd_pr__nfet_01v8 ad=0.08775 pd=0.92 as=0.08775 ps=0.92 w=0.65 l=0.15
X17 X a_109_47# VPWR VPB sky130_fd_pr__pfet_01v8_hvt ad=0.135 pd=1.27 as=0.135 ps=1.27 w=1 l=0.15
X18 VPWR A a_109_47# VPB sky130_fd_pr__pfet_01v8_hvt ad=0.135 pd=1.27 as=0.135 ps=1.27 w=1 l=0.15
X19 VPWR a_109_47# X VPB sky130_fd_pr__pfet_01v8_hvt ad=0.135 pd=1.27 as=0.135 ps=1.27 w=1 l=0.15
X20 VGND A a_109_47# VNB sky130_fd_pr__nfet_01v8 ad=0.08775 pd=0.92 as=0.08775 ps=0.92 w=0.65 l=0.15
X21 VGND A a_109_47# VNB sky130_fd_pr__nfet_01v8 ad=0.08775 pd=0.92 as=0.08775 ps=0.92 w=0.65 l=0.15
X22 VGND a_109_47# X VNB sky130_fd_pr__nfet_01v8 ad=0.08775 pd=0.92 as=0.08775 ps=0.92 w=0.65 l=0.15
X23 X a_109_47# VPWR VPB sky130_fd_pr__pfet_01v8_hvt ad=0.135 pd=1.27 as=0.135 ps=1.27 w=1 l=0.15
X24 VGND a_109_47# X VNB sky130_fd_pr__nfet_01v8 ad=0.08775 pd=0.92 as=0.08775 ps=0.92 w=0.65 l=0.15
X25 VPWR a_109_47# X VPB sky130_fd_pr__pfet_01v8_hvt ad=0.135 pd=1.27 as=0.135 ps=1.27 w=1 l=0.15
X26 VGND a_109_47# X VNB sky130_fd_pr__nfet_01v8 ad=0.08775 pd=0.92 as=0.08775 ps=0.92 w=0.65 l=0.15
X27 VPWR a_109_47# X VPB sky130_fd_pr__pfet_01v8_hvt ad=0.135 pd=1.27 as=0.135 ps=1.27 w=1 l=0.15
X28 X a_109_47# VPWR VPB sky130_fd_pr__pfet_01v8_hvt ad=0.135 pd=1.27 as=0.135 ps=1.27 w=1 l=0.15
X29 VGND a_109_47# X VNB sky130_fd_pr__nfet_01v8 ad=0.169 pd=1.82 as=0.08775 ps=0.92 w=0.65 l=0.15
X30 a_109_47# A VGND VNB sky130_fd_pr__nfet_01v8 ad=0.08775 pd=0.92 as=0.08775 ps=0.92 w=0.65 l=0.15
X31 a_109_47# A VGND VNB sky130_fd_pr__nfet_01v8 ad=0.08775 pd=0.92 as=0.08775 ps=0.92 w=0.65 l=0.15
X32 X a_109_47# VPWR VPB sky130_fd_pr__pfet_01v8_hvt ad=0.135 pd=1.27 as=0.135 ps=1.27 w=1 l=0.15
X33 VPWR a_109_47# X VPB sky130_fd_pr__pfet_01v8_hvt ad=0.135 pd=1.27 as=0.135 ps=1.27 w=1 l=0.15
X34 X a_109_47# VGND VNB sky130_fd_pr__nfet_01v8 ad=0.08775 pd=0.92 as=0.08775 ps=0.92 w=0.65 l=0.15
X35 X a_109_47# VGND VNB sky130_fd_pr__nfet_01v8 ad=0.08775 pd=0.92 as=0.08775 ps=0.92 w=0.65 l=0.15
X36 VPWR A a_109_47# VPB sky130_fd_pr__pfet_01v8_hvt ad=0.135 pd=1.27 as=0.135 ps=1.27 w=1 l=0.15
X37 X a_109_47# VPWR VPB sky130_fd_pr__pfet_01v8_hvt ad=0.135 pd=1.27 as=0.135 ps=1.27 w=1 l=0.15
X38 X a_109_47# VGND VNB sky130_fd_pr__nfet_01v8 ad=0.08775 pd=0.92 as=0.08775 ps=0.92 w=0.65 l=0.15
X39 a_109_47# A VPWR VPB sky130_fd_pr__pfet_01v8_hvt ad=0.135 pd=1.27 as=0.26 ps=2.52 w=1 l=0.15
X40 VPWR a_109_47# X VPB sky130_fd_pr__pfet_01v8_hvt ad=0.135 pd=1.27 as=0.135 ps=1.27 w=1 l=0.15
X41 VPWR a_109_47# X VPB sky130_fd_pr__pfet_01v8_hvt ad=0.26 pd=2.52 as=0.135 ps=1.27 w=1 l=0.15
X42 a_109_47# A VGND VNB sky130_fd_pr__nfet_01v8 ad=0.08775 pd=0.92 as=0.169 ps=1.82 w=0.65 l=0.15
X43 VGND a_109_47# X VNB sky130_fd_pr__nfet_01v8 ad=0.08775 pd=0.92 as=0.08775 ps=0.92 w=0.65 l=0.15
.ends

.subckt sky130_fd_sc_hd__conb_1 VGND VNB VPB VPWR HI LO
X0 VPWR HI sky130_fd_pr__res_generic_po w=0.48 l=0.5
X1 LO VGND sky130_fd_pr__res_generic_po w=0.48 l=0.5
.ends

.subckt sky130_fd_sc_hd__decap_12 VGND VNB VPB VPWR
X0 VPWR VGND VPWR VPB sky130_fd_pr__pfet_01v8_hvt ad=0.2262 pd=2.26 as=0 ps=0 w=0.87 l=4.73
X1 VGND VPWR VGND VNB sky130_fd_pr__nfet_01v8 ad=0.143 pd=1.62 as=0 ps=0 w=0.55 l=4.73
.ends

.subckt sky130_fd_sc_hd__decap_4 VGND VNB VPB VPWR
X0 VPWR VGND VPWR VPB sky130_fd_pr__pfet_01v8_hvt ad=0.2262 pd=2.26 as=0 ps=0 w=0.87 l=1.05
X1 VGND VPWR VGND VNB sky130_fd_pr__nfet_01v8 ad=0.143 pd=1.62 as=0 ps=0 w=0.55 l=1.05
.ends

.subckt constant_block one vccd zero vssd
Xconst_zero_buf const_source/LO vssd vssd vccd vccd zero sky130_fd_sc_hd__buf_16
Xconst_source vssd vssd vccd vccd const_source/HI const_source/LO sky130_fd_sc_hd__conb_1
Xsky130_fd_sc_hd__decap_12_0 vssd vssd vccd vccd sky130_fd_sc_hd__decap_12
Xconst_one_buf const_source/HI vssd vssd vccd vccd one sky130_fd_sc_hd__buf_16
Xsky130_fd_sc_hd__decap_4_0 vssd vssd vccd vccd sky130_fd_sc_hd__decap_4
Xsky130_fd_sc_hd__decap_4_1 vssd vssd vccd vccd sky130_fd_sc_hd__decap_4
.ends

.subckt chip_io_ovt_connects_horiz one zero m2_266_24343# m2_548_2675# m2_744_19814#
+ m2_640_5575# constant_block_0/vccd VSUBS
Xconstant_block_0 one constant_block_0/vccd zero VSUBS constant_block
.ends

* Black-box entry subcircuit for sky130_fd_io__top_gpio_ovtv2 abstract view
.subckt sky130_fd_io__top_gpio_ovtv2 DM[0] DM[1] DM[2] INP_DIS VTRIP_SEL IB_MODE_SEL[0]
+ IB_MODE_SEL[1] SLEW_CTL[0] SLEW_CTL[1] HYS_TRIM HLD_OVR ENABLE_H HLD_H_N ENABLE_VDDA_H
+ ANALOG_EN ENABLE_INP_H IN IN_H VINREF OUT ANALOG_POL ANALOG_SEL SLOW OE_N TIE_HI_ESD
+ TIE_LO_ESD PAD_A_ESD_0_H PAD_A_ESD_1_H PAD_A_NOESD_H ENABLE_VSWITCH_H ENABLE_VDDIO
+ VSSA VSSIO_Q VSSIO VCCHIB VCCD VDDA VDDIO VSWITCH VDDIO_Q AMUXBUS_A AMUXBUS_B VSSD
+ PAD
.ends

.subckt sky130_fd_io__sio_clamp_pcap_4x5 a_36_36# a_229_118#
X0 a_36_36# a_229_118# a_36_36# a_36_36# sky130_fd_pr__nfet_g5v0d10v5 ad=1.325 pd=10.53 as=0 ps=0 w=5 l=4
.ends

.subckt sky130_fd_io__pad_esd m5_1354_20500r# m4_960_20017r#
R0 m4_960_20017r# m5_1354_20500r# sky130_fd_pr__res_generic_m5 w=-5m l=505.07999
.ends

.subckt sky130_fd_io__com_busses_esd sky130_fd_io__com_bus_hookup_0/VCCHIB sky130_fd_io__com_bus_hookup_0/VSSD
+ sky130_fd_io__pad_esd_0/m5_1354_20500r# sky130_fd_io__pad_esd_0/m4_960_20017r# sky130_fd_io__com_bus_hookup_0/AMUXBUS_A
+ sky130_fd_io__com_bus_hookup_0/VCCD sky130_fd_io__com_bus_hookup_0/AMUXBUS_B sky130_fd_io__com_bus_hookup_0/VDDIO
+ sky130_fd_io__com_bus_hookup_0/VSSA sky130_fd_io__com_bus_hookup_0/VSSIO sky130_fd_io__com_bus_hookup_0/VSWITCH
+ sky130_fd_io__com_bus_hookup_0/VDDA sky130_fd_io__com_bus_hookup_0/VDDIO_Q sky130_fd_io__com_bus_hookup_0/VSSIO_Q
Xsky130_fd_io__pad_esd_0 sky130_fd_io__pad_esd_0/m5_1354_20500r# sky130_fd_io__pad_esd_0/m4_960_20017r#
+ sky130_fd_io__pad_esd
.ends

.subckt sky130_fd_io__esd_rcclamp_nfetcap a_179_100# a_n14_18#
X0 a_n14_18# a_179_100# a_n14_18# a_n14_18# sky130_fd_pr__nfet_g5v0d10v5 ad=1.325 pd=10.53 as=0 ps=0 w=5 l=8
.ends

.subckt sky130_fd_io__top_ground_hvc_wpad VCCHIB VDDA VDDIO_Q VSSIO_Q G_PAD PADISOR
+ PADISOL DRN_HVC SRC_BDY_HVC OGC_HVC G_CORE AMUXBUS_B VSSIO VDDIO VSSD VSWITCH VSSA
+ AMUXBUS_A VCCD
Xsky130_fd_io__sio_clamp_pcap_4x5_0 SRC_BDY_HVC a_1268_5934# sky130_fd_io__sio_clamp_pcap_4x5
Xsky130_fd_io__com_busses_esd_0 VCCHIB VSSD G_PAD G_CORE AMUXBUS_A VCCD AMUXBUS_B
+ VDDIO VSSA VSSIO VSWITCH VDDA VDDIO_Q VSSIO_Q sky130_fd_io__com_busses_esd
Xsky130_fd_io__sio_clamp_pcap_4x5_1[0] SRC_BDY_HVC a_1268_5934# sky130_fd_io__sio_clamp_pcap_4x5
Xsky130_fd_io__sio_clamp_pcap_4x5_1[1] SRC_BDY_HVC a_1268_5934# sky130_fd_io__sio_clamp_pcap_4x5
Xsky130_fd_io__sio_clamp_pcap_4x5_1[2] SRC_BDY_HVC a_1268_5934# sky130_fd_io__sio_clamp_pcap_4x5
Xsky130_fd_io__esd_rcclamp_nfetcap_0[0|0] a_1268_5934# SRC_BDY_HVC sky130_fd_io__esd_rcclamp_nfetcap
Xsky130_fd_io__esd_rcclamp_nfetcap_0[1|0] a_1268_5934# SRC_BDY_HVC sky130_fd_io__esd_rcclamp_nfetcap
Xsky130_fd_io__esd_rcclamp_nfetcap_0[2|0] a_1268_5934# SRC_BDY_HVC sky130_fd_io__esd_rcclamp_nfetcap
Xsky130_fd_io__esd_rcclamp_nfetcap_0[0|1] a_1268_5934# SRC_BDY_HVC sky130_fd_io__esd_rcclamp_nfetcap
Xsky130_fd_io__esd_rcclamp_nfetcap_0[1|1] a_1268_5934# SRC_BDY_HVC sky130_fd_io__esd_rcclamp_nfetcap
Xsky130_fd_io__esd_rcclamp_nfetcap_0[2|1] a_1268_5934# SRC_BDY_HVC sky130_fd_io__esd_rcclamp_nfetcap
Xsky130_fd_io__esd_rcclamp_nfetcap_0[0|2] a_1268_5934# SRC_BDY_HVC sky130_fd_io__esd_rcclamp_nfetcap
Xsky130_fd_io__esd_rcclamp_nfetcap_0[1|2] a_1268_5934# SRC_BDY_HVC sky130_fd_io__esd_rcclamp_nfetcap
Xsky130_fd_io__esd_rcclamp_nfetcap_0[2|2] a_1268_5934# SRC_BDY_HVC sky130_fd_io__esd_rcclamp_nfetcap
Xsky130_fd_io__esd_rcclamp_nfetcap_0[0|3] a_1268_5934# SRC_BDY_HVC sky130_fd_io__esd_rcclamp_nfetcap
Xsky130_fd_io__esd_rcclamp_nfetcap_0[1|3] a_1268_5934# SRC_BDY_HVC sky130_fd_io__esd_rcclamp_nfetcap
Xsky130_fd_io__esd_rcclamp_nfetcap_0[2|3] a_1268_5934# SRC_BDY_HVC sky130_fd_io__esd_rcclamp_nfetcap
Xsky130_fd_io__esd_rcclamp_nfetcap_0[0|4] a_1268_5934# SRC_BDY_HVC sky130_fd_io__esd_rcclamp_nfetcap
Xsky130_fd_io__esd_rcclamp_nfetcap_0[1|4] a_1268_5934# SRC_BDY_HVC sky130_fd_io__esd_rcclamp_nfetcap
Xsky130_fd_io__esd_rcclamp_nfetcap_0[2|4] a_1268_5934# SRC_BDY_HVC sky130_fd_io__esd_rcclamp_nfetcap
X0 DRN_HVC a_1368_5960# SRC_BDY_HVC SRC_BDY_HVC sky130_fd_pr__nfet_g5v0d10v5 ad=15.1 pd=21.51 as=13.9 ps=41.39 w=20 l=0.5
X1 DRN_HVC a_1268_5934# a_1368_5960# DRN_HVC sky130_fd_pr__pfet_g5v0d10v5 ad=0.98 pd=7.28 as=0.98 ps=7.28 w=7 l=0.5
X2 SRC_BDY_HVC a_1368_5960# DRN_HVC SRC_BDY_HVC sky130_fd_pr__nfet_g5v0d10v5 ad=6.95 pd=21.39 as=7.55 ps=11.51 w=10 l=0.5
X3 DRN_HVC a_1368_5960# SRC_BDY_HVC SRC_BDY_HVC sky130_fd_pr__nfet_g5v0d10v5 ad=15.1 pd=21.51 as=13.9 ps=41.39 w=20 l=0.5
X4 a_1368_5960# a_1268_5934# DRN_HVC DRN_HVC sky130_fd_pr__pfet_g5v0d10v5 ad=0.98 pd=7.28 as=1.855 ps=14.53 w=7 l=0.5
X5 DRN_HVC a_1368_5960# SRC_BDY_HVC SRC_BDY_HVC sky130_fd_pr__nfet_g5v0d10v5 ad=15.1 pd=21.51 as=13.9 ps=41.39 w=20 l=0.5
X6 DRN_HVC a_1368_5960# SRC_BDY_HVC SRC_BDY_HVC sky130_fd_pr__nfet_g5v0d10v5 ad=15.1 pd=21.51 as=13.9 ps=41.39 w=20 l=0.5
X7 DRN_HVC a_1368_5960# SRC_BDY_HVC SRC_BDY_HVC sky130_fd_pr__nfet_g5v0d10v5 ad=15.1 pd=21.51 as=13.9 ps=41.39 w=20 l=0.5
X8 SRC_BDY_HVC a_1368_5960# DRN_HVC SRC_BDY_HVC sky130_fd_pr__nfet_g5v0d10v5 ad=13.9 pd=41.39 as=15.1 ps=21.51 w=20 l=0.5
X9 SRC_BDY_HVC a_1368_5960# DRN_HVC SRC_BDY_HVC sky130_fd_pr__nfet_g5v0d10v5 ad=13.9 pd=41.39 as=15.1 ps=21.51 w=20 l=0.5
X10 a_1368_5960# a_1268_5934# DRN_HVC DRN_HVC sky130_fd_pr__pfet_g5v0d10v5 ad=0.98 pd=7.28 as=0.98 ps=7.28 w=7 l=0.5
X11 DRN_HVC a_1268_5934# a_1368_5960# DRN_HVC sky130_fd_pr__pfet_g5v0d10v5 ad=0.98 pd=7.28 as=0.98 ps=7.28 w=7 l=0.5
X12 SRC_BDY_HVC a_1368_5960# DRN_HVC SRC_BDY_HVC sky130_fd_pr__nfet_g5v0d10v5 ad=13.9 pd=41.39 as=15.1 ps=21.51 w=20 l=0.5
X13 DRN_HVC a_1368_5960# SRC_BDY_HVC SRC_BDY_HVC sky130_fd_pr__nfet_g5v0d10v5 ad=15.1 pd=21.51 as=13.9 ps=41.39 w=20 l=0.5
X14 a_1368_5960# a_1268_5934# DRN_HVC DRN_HVC sky130_fd_pr__pfet_g5v0d10v5 ad=0.98 pd=7.28 as=0.98 ps=7.28 w=7 l=0.5
X15 DRN_HVC a_1268_5934# a_1368_5960# DRN_HVC sky130_fd_pr__pfet_g5v0d10v5 ad=0.98 pd=7.28 as=0.98 ps=7.28 w=7 l=0.5
X16 DRN_HVC a_1268_5934# a_1368_5960# DRN_HVC sky130_fd_pr__pfet_g5v0d10v5 ad=0.98 pd=7.28 as=0.98 ps=7.28 w=7 l=0.5
X17 DRN_HVC a_1368_5960# SRC_BDY_HVC SRC_BDY_HVC sky130_fd_pr__nfet_g5v0d10v5 ad=7.55 pd=11.51 as=6.95 ps=21.39 w=10 l=0.5
X18 a_1368_5960# a_1268_5934# DRN_HVC DRN_HVC sky130_fd_pr__pfet_g5v0d10v5 ad=0.98 pd=7.28 as=0.98 ps=7.28 w=7 l=0.5
X19 DRN_HVC a_1268_5934# a_1368_5960# DRN_HVC sky130_fd_pr__pfet_g5v0d10v5 ad=0.98 pd=7.28 as=0.98 ps=7.28 w=7 l=0.5
X20 DRN_HVC a_1368_5960# SRC_BDY_HVC SRC_BDY_HVC sky130_fd_pr__nfet_g5v0d10v5 ad=15.1 pd=21.51 as=13.9 ps=41.39 w=20 l=0.5
X21 SRC_BDY_HVC a_1368_5960# DRN_HVC SRC_BDY_HVC sky130_fd_pr__nfet_g5v0d10v5 ad=13.9 pd=41.39 as=15.1 ps=21.51 w=20 l=0.5
X22 DRN_HVC a_1368_5960# SRC_BDY_HVC SRC_BDY_HVC sky130_fd_pr__nfet_g5v0d10v5 ad=7.55 pd=11.51 as=6.95 ps=21.39 w=10 l=0.5
X23 SRC_BDY_HVC a_1368_5960# DRN_HVC SRC_BDY_HVC sky130_fd_pr__nfet_g5v0d10v5 ad=13.9 pd=41.39 as=15.1 ps=21.51 w=20 l=0.5
X24 DRN_HVC a_1368_5960# SRC_BDY_HVC SRC_BDY_HVC sky130_fd_pr__nfet_g5v0d10v5 ad=15.1 pd=21.51 as=13.9 ps=41.39 w=20 l=0.5
X25 SRC_BDY_HVC a_1368_5960# DRN_HVC SRC_BDY_HVC sky130_fd_pr__nfet_g5v0d10v5 ad=6.95 pd=21.39 as=7.55 ps=11.51 w=10 l=0.5
X26 DRN_HVC a_1368_5960# SRC_BDY_HVC SRC_BDY_HVC sky130_fd_pr__nfet_g5v0d10v5 ad=15.1 pd=21.51 as=13.9 ps=41.39 w=20 l=0.5
X27 DRN_HVC a_1368_5960# SRC_BDY_HVC SRC_BDY_HVC sky130_fd_pr__nfet_g5v0d10v5 ad=15.1 pd=21.51 as=13.9 ps=41.39 w=20 l=0.5
X28 a_1368_5960# a_1268_5934# DRN_HVC DRN_HVC sky130_fd_pr__pfet_g5v0d10v5 ad=0.98 pd=7.28 as=0.98 ps=7.28 w=7 l=0.5
X29 DRN_HVC a_1368_5960# SRC_BDY_HVC SRC_BDY_HVC sky130_fd_pr__nfet_g5v0d10v5 ad=7.55 pd=11.51 as=6.95 ps=21.39 w=10 l=0.5
X30 a_1368_5960# a_1268_5934# SRC_BDY_HVC SRC_BDY_HVC sky130_fd_pr__nfet_g5v0d10v5 ad=0.98 pd=7.28 as=0.98 ps=7.28 w=7 l=0.5
X31 DRN_HVC a_1268_5934# a_1368_5960# DRN_HVC sky130_fd_pr__pfet_g5v0d10v5 ad=0.98 pd=7.28 as=0.98 ps=7.28 w=7 l=0.5
X32 SRC_BDY_HVC a_1368_5960# DRN_HVC SRC_BDY_HVC sky130_fd_pr__nfet_g5v0d10v5 ad=6.95 pd=21.39 as=7.55 ps=11.51 w=10 l=0.5
X33 SRC_BDY_HVC a_1368_5960# DRN_HVC SRC_BDY_HVC sky130_fd_pr__nfet_g5v0d10v5 ad=13.9 pd=41.39 as=15.1 ps=21.51 w=20 l=0.5
X34 a_1368_5960# a_1268_5934# DRN_HVC DRN_HVC sky130_fd_pr__pfet_g5v0d10v5 ad=0.98 pd=7.28 as=0.98 ps=7.28 w=7 l=0.5
X35 DRN_HVC a_1268_5934# a_1368_5960# DRN_HVC sky130_fd_pr__pfet_g5v0d10v5 ad=0.98 pd=7.28 as=0.98 ps=7.28 w=7 l=0.5
X36 SRC_BDY_HVC a_1368_5960# DRN_HVC SRC_BDY_HVC sky130_fd_pr__nfet_g5v0d10v5 ad=13.9 pd=41.39 as=15.1 ps=21.51 w=20 l=0.5
X37 a_1368_5960# a_1268_5934# DRN_HVC DRN_HVC sky130_fd_pr__pfet_g5v0d10v5 ad=0.98 pd=7.28 as=0.98 ps=7.28 w=7 l=0.5
X38 DRN_HVC a_1368_5960# SRC_BDY_HVC SRC_BDY_HVC sky130_fd_pr__nfet_g5v0d10v5 ad=15.1 pd=21.51 as=13.9 ps=41.39 w=20 l=0.5
X39 SRC_BDY_HVC a_1368_5960# DRN_HVC SRC_BDY_HVC sky130_fd_pr__nfet_g5v0d10v5 ad=13.9 pd=41.39 as=15.1 ps=21.51 w=20 l=0.5
X40 SRC_BDY_HVC a_1368_5960# DRN_HVC SRC_BDY_HVC sky130_fd_pr__nfet_g5v0d10v5 ad=13.9 pd=41.39 as=15.1 ps=21.51 w=20 l=0.5
X41 a_1368_5960# a_1268_5934# SRC_BDY_HVC SRC_BDY_HVC sky130_fd_pr__nfet_g5v0d10v5 ad=0.98 pd=7.28 as=0.98 ps=7.28 w=7 l=0.5
X42 a_1368_5960# a_1268_5934# DRN_HVC DRN_HVC sky130_fd_pr__pfet_g5v0d10v5 ad=0.98 pd=7.28 as=0.98 ps=7.28 w=7 l=0.5
X43 DRN_HVC a_1268_5934# a_1368_5960# DRN_HVC sky130_fd_pr__pfet_g5v0d10v5 ad=0.98 pd=7.28 as=0.98 ps=7.28 w=7 l=0.5
X44 DRN_HVC a_1368_5960# SRC_BDY_HVC SRC_BDY_HVC sky130_fd_pr__nfet_g5v0d10v5 ad=15.1 pd=21.51 as=13.9 ps=41.39 w=20 l=0.5
X45 SRC_BDY_HVC a_1368_5960# DRN_HVC SRC_BDY_HVC sky130_fd_pr__nfet_g5v0d10v5 ad=13.9 pd=41.39 as=15.1 ps=21.51 w=20 l=0.5
X46 DRN_HVC a_1368_5960# SRC_BDY_HVC SRC_BDY_HVC sky130_fd_pr__nfet_g5v0d10v5 ad=15.1 pd=21.51 as=13.9 ps=41.39 w=20 l=0.5
X47 SRC_BDY_HVC a_1268_5934# a_1368_5960# SRC_BDY_HVC sky130_fd_pr__nfet_g5v0d10v5 ad=0.98 pd=7.28 as=0.98 ps=7.28 w=7 l=0.5
X48 DRN_HVC a_1268_5934# a_1368_5960# DRN_HVC sky130_fd_pr__pfet_g5v0d10v5 ad=0.98 pd=7.28 as=0.98 ps=7.28 w=7 l=0.5
X49 DRN_HVC a_1368_5960# SRC_BDY_HVC SRC_BDY_HVC sky130_fd_pr__nfet_g5v0d10v5 ad=7.55 pd=11.51 as=6.95 ps=21.39 w=10 l=0.5
X50 DRN_HVC a_1368_5960# SRC_BDY_HVC SRC_BDY_HVC sky130_fd_pr__nfet_g5v0d10v5 ad=15.1 pd=21.51 as=13.9 ps=41.39 w=20 l=0.5
X51 DRN_HVC a_1368_5960# SRC_BDY_HVC SRC_BDY_HVC sky130_fd_pr__nfet_g5v0d10v5 ad=15.1 pd=21.51 as=13.9 ps=41.39 w=20 l=0.5
X52 a_1368_5960# a_1268_5934# SRC_BDY_HVC SRC_BDY_HVC sky130_fd_pr__nfet_g5v0d10v5 ad=0.98 pd=7.28 as=0.98 ps=7.28 w=7 l=0.5
X53 a_1368_5960# a_1268_5934# DRN_HVC DRN_HVC sky130_fd_pr__pfet_g5v0d10v5 ad=0.98 pd=7.28 as=0.98 ps=7.28 w=7 l=0.5
X54 DRN_HVC a_1368_5960# SRC_BDY_HVC SRC_BDY_HVC sky130_fd_pr__nfet_g5v0d10v5 ad=15.1 pd=21.51 as=13.9 ps=41.39 w=20 l=0.5
X55 SRC_BDY_HVC a_1268_5934# a_1368_5960# SRC_BDY_HVC sky130_fd_pr__nfet_g5v0d10v5 ad=0.98 pd=7.28 as=0.98 ps=7.28 w=7 l=0.5
X56 SRC_BDY_HVC a_1368_5960# DRN_HVC SRC_BDY_HVC sky130_fd_pr__nfet_g5v0d10v5 ad=13.9 pd=41.39 as=15.1 ps=21.51 w=20 l=0.5
X57 SRC_BDY_HVC a_1368_5960# DRN_HVC SRC_BDY_HVC sky130_fd_pr__nfet_g5v0d10v5 ad=13.9 pd=41.39 as=15.1 ps=21.51 w=20 l=0.5
X58 SRC_BDY_HVC a_1368_5960# DRN_HVC SRC_BDY_HVC sky130_fd_pr__nfet_g5v0d10v5 ad=13.9 pd=41.39 as=15.1 ps=21.51 w=20 l=0.5
X59 DRN_HVC a_1368_5960# SRC_BDY_HVC SRC_BDY_HVC sky130_fd_pr__nfet_g5v0d10v5 ad=15.1 pd=21.51 as=13.9 ps=41.39 w=20 l=0.5
X60 SRC_BDY_HVC a_1368_5960# DRN_HVC SRC_BDY_HVC sky130_fd_pr__nfet_g5v0d10v5 ad=13.9 pd=41.39 as=15.1 ps=21.51 w=20 l=0.5
X61 DRN_HVC a_1368_5960# SRC_BDY_HVC SRC_BDY_HVC sky130_fd_pr__nfet_g5v0d10v5 ad=15.1 pd=21.51 as=13.9 ps=41.39 w=20 l=0.5
X62 SRC_BDY_HVC a_1368_5960# DRN_HVC SRC_BDY_HVC sky130_fd_pr__nfet_g5v0d10v5 ad=6.95 pd=21.39 as=7.55 ps=11.51 w=10 l=0.5
X63 DRN_HVC a_1368_5960# SRC_BDY_HVC SRC_BDY_HVC sky130_fd_pr__nfet_g5v0d10v5 ad=15.1 pd=21.51 as=13.9 ps=41.39 w=20 l=0.5
R0 G_CORE PADISOL sky130_fd_pr__res_generic_m3 w=11.825 l=10m
X64 SRC_BDY_HVC a_1268_5934# SRC_BDY_HVC SRC_BDY_HVC sky130_fd_pr__nfet_g5v0d10v5 ad=1.325 pd=10.53 as=0 ps=0 w=5 l=4
X65 DRN_HVC a_1368_5960# SRC_BDY_HVC SRC_BDY_HVC sky130_fd_pr__nfet_g5v0d10v5 ad=7.55 pd=11.51 as=6.95 ps=21.39 w=10 l=0.5
X66 DRN_HVC a_1368_5960# SRC_BDY_HVC SRC_BDY_HVC sky130_fd_pr__nfet_g5v0d10v5 ad=15.1 pd=21.51 as=13.9 ps=41.39 w=20 l=0.5
X67 DRN_HVC a_1368_5960# SRC_BDY_HVC SRC_BDY_HVC sky130_fd_pr__nfet_g5v0d10v5 ad=15.1 pd=21.51 as=13.9 ps=41.39 w=20 l=0.5
X68 a_1368_5960# a_1268_5934# DRN_HVC DRN_HVC sky130_fd_pr__pfet_g5v0d10v5 ad=0.98 pd=7.28 as=0.98 ps=7.28 w=7 l=0.5
X69 SRC_BDY_HVC a_1368_5960# DRN_HVC SRC_BDY_HVC sky130_fd_pr__nfet_g5v0d10v5 ad=13.9 pd=41.39 as=15.1 ps=21.51 w=20 l=0.5
X70 SRC_BDY_HVC a_1368_5960# DRN_HVC SRC_BDY_HVC sky130_fd_pr__nfet_g5v0d10v5 ad=13.9 pd=41.39 as=15.1 ps=21.51 w=20 l=0.5
X71 SRC_BDY_HVC a_1368_5960# DRN_HVC SRC_BDY_HVC sky130_fd_pr__nfet_g5v0d10v5 ad=13.9 pd=41.39 as=15.1 ps=21.51 w=20 l=0.5
X72 SRC_BDY_HVC a_1368_5960# DRN_HVC SRC_BDY_HVC sky130_fd_pr__nfet_g5v0d10v5 ad=6.95 pd=21.39 as=7.55 ps=11.51 w=10 l=0.5
X73 SRC_BDY_HVC a_1368_5960# DRN_HVC SRC_BDY_HVC sky130_fd_pr__nfet_g5v0d10v5 ad=13.9 pd=41.39 as=15.1 ps=21.51 w=20 l=0.5
X74 SRC_BDY_HVC a_1368_5960# DRN_HVC SRC_BDY_HVC sky130_fd_pr__nfet_g5v0d10v5 ad=13.9 pd=41.39 as=15.1 ps=21.51 w=20 l=0.5
X75 SRC_BDY_HVC a_1368_5960# DRN_HVC SRC_BDY_HVC sky130_fd_pr__nfet_g5v0d10v5 ad=13.9 pd=41.39 as=15.1 ps=21.51 w=20 l=0.5
X76 SRC_BDY_HVC a_1368_5960# DRN_HVC SRC_BDY_HVC sky130_fd_pr__nfet_g5v0d10v5 ad=13.9 pd=41.39 as=15.1 ps=21.51 w=20 l=0.5
X77 DRN_HVC a_1368_5960# SRC_BDY_HVC SRC_BDY_HVC sky130_fd_pr__nfet_g5v0d10v5 ad=15.1 pd=21.51 as=13.9 ps=41.39 w=20 l=0.5
X78 SRC_BDY_HVC a_1368_5960# DRN_HVC SRC_BDY_HVC sky130_fd_pr__nfet_g5v0d10v5 ad=13.9 pd=41.39 as=15.1 ps=21.51 w=20 l=0.5
X79 a_1368_5960# a_1268_5934# DRN_HVC DRN_HVC sky130_fd_pr__pfet_g5v0d10v5 ad=0.98 pd=7.28 as=0.98 ps=7.28 w=7 l=0.5
X80 DRN_HVC a_1268_5934# a_1368_5960# DRN_HVC sky130_fd_pr__pfet_g5v0d10v5 ad=0.98 pd=7.28 as=0.98 ps=7.28 w=7 l=0.5
X81 SRC_BDY_HVC a_1368_5960# DRN_HVC SRC_BDY_HVC sky130_fd_pr__nfet_g5v0d10v5 ad=13.9 pd=41.39 as=15.1 ps=21.51 w=20 l=0.5
X82 SRC_BDY_HVC a_1368_5960# DRN_HVC SRC_BDY_HVC sky130_fd_pr__nfet_g5v0d10v5 ad=13.9 pd=41.39 as=15.1 ps=21.51 w=20 l=0.5
X83 DRN_HVC a_1368_5960# SRC_BDY_HVC SRC_BDY_HVC sky130_fd_pr__nfet_g5v0d10v5 ad=15.1 pd=21.51 as=13.9 ps=41.39 w=20 l=0.5
X84 SRC_BDY_HVC a_1368_5960# DRN_HVC SRC_BDY_HVC sky130_fd_pr__nfet_g5v0d10v5 ad=13.9 pd=41.39 as=15.1 ps=21.51 w=20 l=0.5
X85 DRN_HVC a_1368_5960# SRC_BDY_HVC SRC_BDY_HVC sky130_fd_pr__nfet_g5v0d10v5 ad=15.1 pd=21.51 as=13.9 ps=41.39 w=20 l=0.5
X86 DRN_HVC a_1368_5960# SRC_BDY_HVC SRC_BDY_HVC sky130_fd_pr__nfet_g5v0d10v5 ad=15.1 pd=21.51 as=13.9 ps=41.39 w=20 l=0.5
X87 SRC_BDY_HVC a_1368_5960# DRN_HVC SRC_BDY_HVC sky130_fd_pr__nfet_g5v0d10v5 ad=6.95 pd=21.39 as=7.55 ps=11.51 w=10 l=0.5
X88 DRN_HVC a_1368_5960# SRC_BDY_HVC SRC_BDY_HVC sky130_fd_pr__nfet_g5v0d10v5 ad=15.1 pd=21.51 as=13.9 ps=41.39 w=20 l=0.5
X89 DRN_HVC a_1368_5960# SRC_BDY_HVC SRC_BDY_HVC sky130_fd_pr__nfet_g5v0d10v5 ad=15.1 pd=21.51 as=13.9 ps=41.39 w=20 l=0.5
X90 SRC_BDY_HVC a_1368_5960# DRN_HVC SRC_BDY_HVC sky130_fd_pr__nfet_g5v0d10v5 ad=13.9 pd=41.39 as=15.1 ps=21.51 w=20 l=0.5
X91 DRN_HVC a_1368_5960# SRC_BDY_HVC SRC_BDY_HVC sky130_fd_pr__nfet_g5v0d10v5 ad=15.1 pd=21.51 as=13.9 ps=41.39 w=20 l=0.5
X92 SRC_BDY_HVC a_1268_5934# a_1368_5960# SRC_BDY_HVC sky130_fd_pr__nfet_g5v0d10v5 ad=0.98 pd=7.28 as=0.98 ps=7.28 w=7 l=0.5
X93 a_1368_5960# a_1268_5934# DRN_HVC DRN_HVC sky130_fd_pr__pfet_g5v0d10v5 ad=0.98 pd=7.28 as=0.98 ps=7.28 w=7 l=0.5
X94 DRN_HVC a_1368_5960# SRC_BDY_HVC SRC_BDY_HVC sky130_fd_pr__nfet_g5v0d10v5 ad=15.1 pd=21.51 as=13.9 ps=41.39 w=20 l=0.5
X95 DRN_HVC a_1268_5934# a_1368_5960# DRN_HVC sky130_fd_pr__pfet_g5v0d10v5 ad=0.98 pd=7.28 as=0.98 ps=7.28 w=7 l=0.5
X96 DRN_HVC a_1368_5960# SRC_BDY_HVC SRC_BDY_HVC sky130_fd_pr__nfet_g5v0d10v5 ad=15.1 pd=21.51 as=13.9 ps=41.39 w=20 l=0.5
X97 DRN_HVC a_1368_5960# SRC_BDY_HVC SRC_BDY_HVC sky130_fd_pr__nfet_g5v0d10v5 ad=15.1 pd=21.51 as=13.9 ps=41.39 w=20 l=0.5
X98 DRN_HVC a_1368_5960# SRC_BDY_HVC SRC_BDY_HVC sky130_fd_pr__nfet_g5v0d10v5 ad=15.1 pd=21.51 as=13.9 ps=41.39 w=20 l=0.5
X99 DRN_HVC a_1368_5960# SRC_BDY_HVC SRC_BDY_HVC sky130_fd_pr__nfet_g5v0d10v5 ad=7.55 pd=11.51 as=6.95 ps=21.39 w=10 l=0.5
X100 SRC_BDY_HVC a_1368_5960# DRN_HVC SRC_BDY_HVC sky130_fd_pr__nfet_g5v0d10v5 ad=13.9 pd=41.39 as=15.1 ps=21.51 w=20 l=0.5
R1 G_CORE PADISOR sky130_fd_pr__res_generic_m3 w=11.825 l=10m
X101 SRC_BDY_HVC a_1368_5960# DRN_HVC SRC_BDY_HVC sky130_fd_pr__nfet_g5v0d10v5 ad=13.9 pd=41.39 as=15.1 ps=21.51 w=20 l=0.5
X102 a_1368_5960# a_1268_5934# DRN_HVC DRN_HVC sky130_fd_pr__pfet_g5v0d10v5 ad=0.98 pd=7.28 as=0.98 ps=7.28 w=7 l=0.5
X103 SRC_BDY_HVC a_1368_5960# DRN_HVC SRC_BDY_HVC sky130_fd_pr__nfet_g5v0d10v5 ad=13.9 pd=41.39 as=15.1 ps=21.51 w=20 l=0.5
X104 DRN_HVC a_1368_5960# SRC_BDY_HVC SRC_BDY_HVC sky130_fd_pr__nfet_g5v0d10v5 ad=15.1 pd=21.51 as=13.9 ps=41.39 w=20 l=0.5
X105 SRC_BDY_HVC a_1268_5934# a_1368_5960# SRC_BDY_HVC sky130_fd_pr__nfet_g5v0d10v5 ad=0.98 pd=7.28 as=0.98 ps=7.28 w=7 l=0.5
X106 DRN_HVC a_1268_5934# a_1368_5960# DRN_HVC sky130_fd_pr__pfet_g5v0d10v5 ad=0.98 pd=7.28 as=0.98 ps=7.28 w=7 l=0.5
X107 DRN_HVC a_1368_5960# SRC_BDY_HVC SRC_BDY_HVC sky130_fd_pr__nfet_g5v0d10v5 ad=15.1 pd=21.51 as=13.9 ps=41.39 w=20 l=0.5
X108 SRC_BDY_HVC a_1368_5960# DRN_HVC SRC_BDY_HVC sky130_fd_pr__nfet_g5v0d10v5 ad=13.9 pd=41.39 as=15.1 ps=21.51 w=20 l=0.5
X109 a_1368_5960# a_1268_5934# SRC_BDY_HVC SRC_BDY_HVC sky130_fd_pr__nfet_g5v0d10v5 ad=0.98 pd=7.28 as=0.98 ps=7.28 w=7 l=0.5
X110 a_1368_5960# a_1268_5934# DRN_HVC DRN_HVC sky130_fd_pr__pfet_g5v0d10v5 ad=0.98 pd=7.28 as=0.98 ps=7.28 w=7 l=0.5
X111 DRN_HVC a_1368_5960# SRC_BDY_HVC SRC_BDY_HVC sky130_fd_pr__nfet_g5v0d10v5 ad=7.55 pd=11.51 as=6.95 ps=21.39 w=10 l=0.5
X112 SRC_BDY_HVC a_1368_5960# DRN_HVC SRC_BDY_HVC sky130_fd_pr__nfet_g5v0d10v5 ad=13.9 pd=41.39 as=15.1 ps=21.51 w=20 l=0.5
X113 a_1368_5960# a_1268_5934# DRN_HVC DRN_HVC sky130_fd_pr__pfet_g5v0d10v5 ad=0.98 pd=7.28 as=0.98 ps=7.28 w=7 l=0.5
X114 SRC_BDY_HVC a_1368_5960# DRN_HVC SRC_BDY_HVC sky130_fd_pr__nfet_g5v0d10v5 ad=13.9 pd=41.39 as=15.1 ps=21.51 w=20 l=0.5
X115 SRC_BDY_HVC a_1268_5934# a_1368_5960# SRC_BDY_HVC sky130_fd_pr__nfet_g5v0d10v5 ad=0.98 pd=7.28 as=0.98 ps=7.28 w=7 l=0.5
X116 DRN_HVC a_1268_5934# a_1368_5960# DRN_HVC sky130_fd_pr__pfet_g5v0d10v5 ad=0.98 pd=7.28 as=0.98 ps=7.28 w=7 l=0.5
X117 DRN_HVC a_1368_5960# SRC_BDY_HVC SRC_BDY_HVC sky130_fd_pr__nfet_g5v0d10v5 ad=15.1 pd=21.51 as=13.9 ps=41.39 w=20 l=0.5
X118 a_1368_5960# a_1268_5934# DRN_HVC DRN_HVC sky130_fd_pr__pfet_g5v0d10v5 ad=0.98 pd=7.28 as=0.98 ps=7.28 w=7 l=0.5
X119 DRN_HVC a_1368_5960# SRC_BDY_HVC SRC_BDY_HVC sky130_fd_pr__nfet_g5v0d10v5 ad=15.1 pd=21.51 as=13.9 ps=41.39 w=20 l=0.5
X120 DRN_HVC a_1368_5960# SRC_BDY_HVC SRC_BDY_HVC sky130_fd_pr__nfet_g5v0d10v5 ad=15.1 pd=21.51 as=13.9 ps=41.39 w=20 l=0.5
X121 SRC_BDY_HVC a_1368_5960# DRN_HVC SRC_BDY_HVC sky130_fd_pr__nfet_g5v0d10v5 ad=6.95 pd=21.39 as=7.55 ps=11.51 w=10 l=0.5
X122 SRC_BDY_HVC a_1368_5960# DRN_HVC SRC_BDY_HVC sky130_fd_pr__nfet_g5v0d10v5 ad=6.95 pd=21.39 as=7.55 ps=11.51 w=10 l=0.5
X123 SRC_BDY_HVC a_1368_5960# DRN_HVC SRC_BDY_HVC sky130_fd_pr__nfet_g5v0d10v5 ad=13.9 pd=41.39 as=15.1 ps=21.51 w=20 l=0.5
X124 DRN_HVC a_1268_5934# a_1368_5960# DRN_HVC sky130_fd_pr__pfet_g5v0d10v5 ad=0.98 pd=7.28 as=0.98 ps=7.28 w=7 l=0.5
X125 DRN_HVC a_1368_5960# SRC_BDY_HVC SRC_BDY_HVC sky130_fd_pr__nfet_g5v0d10v5 ad=15.1 pd=21.51 as=13.9 ps=41.39 w=20 l=0.5
X126 DRN_HVC a_1368_5960# SRC_BDY_HVC SRC_BDY_HVC sky130_fd_pr__nfet_g5v0d10v5 ad=15.1 pd=21.51 as=13.9 ps=41.39 w=20 l=0.5
X127 SRC_BDY_HVC a_1368_5960# DRN_HVC SRC_BDY_HVC sky130_fd_pr__nfet_g5v0d10v5 ad=13.9 pd=41.39 as=15.1 ps=21.51 w=20 l=0.5
X128 a_1368_5960# a_1268_5934# DRN_HVC DRN_HVC sky130_fd_pr__pfet_g5v0d10v5 ad=0.98 pd=7.28 as=0.98 ps=7.28 w=7 l=0.5
X129 DRN_HVC a_1368_5960# SRC_BDY_HVC SRC_BDY_HVC sky130_fd_pr__nfet_g5v0d10v5 ad=15.1 pd=21.51 as=13.9 ps=41.39 w=20 l=0.5
X130 DRN_HVC a_1268_5934# a_1368_5960# DRN_HVC sky130_fd_pr__pfet_g5v0d10v5 ad=0.98 pd=7.28 as=0.98 ps=7.28 w=7 l=0.5
X131 DRN_HVC a_1268_5934# a_1368_5960# DRN_HVC sky130_fd_pr__pfet_g5v0d10v5 ad=0.98 pd=7.28 as=0.98 ps=7.28 w=7 l=0.5
X132 a_1368_5960# a_1268_5934# DRN_HVC DRN_HVC sky130_fd_pr__pfet_g5v0d10v5 ad=0.98 pd=7.28 as=0.98 ps=7.28 w=7 l=0.5
X133 DRN_HVC a_1268_5934# a_1368_5960# DRN_HVC sky130_fd_pr__pfet_g5v0d10v5 ad=0.98 pd=7.28 as=0.98 ps=7.28 w=7 l=0.5
X134 a_1368_5960# a_1268_5934# DRN_HVC DRN_HVC sky130_fd_pr__pfet_g5v0d10v5 ad=0.98 pd=7.28 as=0.98 ps=7.28 w=7 l=0.5
X135 SRC_BDY_HVC a_1368_5960# DRN_HVC SRC_BDY_HVC sky130_fd_pr__nfet_g5v0d10v5 ad=13.9 pd=41.39 as=15.1 ps=21.51 w=20 l=0.5
X136 DRN_HVC a_1268_5934# a_1368_5960# DRN_HVC sky130_fd_pr__pfet_g5v0d10v5 ad=0.98 pd=7.28 as=0.98 ps=7.28 w=7 l=0.5
X137 SRC_BDY_HVC a_1368_5960# DRN_HVC SRC_BDY_HVC sky130_fd_pr__nfet_g5v0d10v5 ad=13.9 pd=41.39 as=15.1 ps=21.51 w=20 l=0.5
X138 DRN_HVC a_1268_5934# a_1368_5960# DRN_HVC sky130_fd_pr__pfet_g5v0d10v5 ad=0.98 pd=7.28 as=0.98 ps=7.28 w=7 l=0.5
X139 DRN_HVC a_1368_5960# SRC_BDY_HVC SRC_BDY_HVC sky130_fd_pr__nfet_g5v0d10v5 ad=15.1 pd=21.51 as=13.9 ps=41.39 w=20 l=0.5
X140 a_1368_5960# a_1268_5934# DRN_HVC DRN_HVC sky130_fd_pr__pfet_g5v0d10v5 ad=0.98 pd=7.28 as=0.98 ps=7.28 w=7 l=0.5
X141 DRN_HVC a_1368_5960# SRC_BDY_HVC SRC_BDY_HVC sky130_fd_pr__nfet_g5v0d10v5 ad=7.55 pd=11.51 as=6.95 ps=21.39 w=10 l=0.5
X142 DRN_HVC a_214_8638# sky130_fd_pr__res_generic_po w=0.33 l=700
X143 SRC_BDY_HVC a_1368_5960# DRN_HVC SRC_BDY_HVC sky130_fd_pr__nfet_g5v0d10v5 ad=13.9 pd=41.39 as=15.1 ps=21.51 w=20 l=0.5
X144 DRN_HVC a_1368_5960# SRC_BDY_HVC SRC_BDY_HVC sky130_fd_pr__nfet_g5v0d10v5 ad=15.1 pd=21.51 as=13.9 ps=41.39 w=20 l=0.5
X145 DRN_HVC a_1268_5934# a_1368_5960# DRN_HVC sky130_fd_pr__pfet_g5v0d10v5 ad=1.855 pd=14.53 as=0.98 ps=7.28 w=7 l=0.5
X146 DRN_HVC a_1368_5960# SRC_BDY_HVC SRC_BDY_HVC sky130_fd_pr__nfet_g5v0d10v5 ad=15.1 pd=21.51 as=13.9 ps=41.39 w=20 l=0.5
X147 a_1368_5960# a_1268_5934# SRC_BDY_HVC SRC_BDY_HVC sky130_fd_pr__nfet_g5v0d10v5 ad=0.98 pd=7.28 as=0.98 ps=7.28 w=7 l=0.5
X148 SRC_BDY_HVC a_1268_5934# a_1368_5960# SRC_BDY_HVC sky130_fd_pr__nfet_g5v0d10v5 ad=0.98 pd=7.28 as=0.98 ps=7.28 w=7 l=0.5
X149 a_1368_5960# a_1268_5934# DRN_HVC DRN_HVC sky130_fd_pr__pfet_g5v0d10v5 ad=0.98 pd=7.28 as=0.98 ps=7.28 w=7 l=0.5
X150 DRN_HVC a_1268_5934# a_1368_5960# DRN_HVC sky130_fd_pr__pfet_g5v0d10v5 ad=0.98 pd=7.28 as=0.98 ps=7.28 w=7 l=0.5
X151 a_1368_5960# a_1268_5934# SRC_BDY_HVC SRC_BDY_HVC sky130_fd_pr__nfet_g5v0d10v5 ad=0.98 pd=7.28 as=1.855 ps=14.53 w=7 l=0.5
X152 a_1368_5960# a_1268_5934# DRN_HVC DRN_HVC sky130_fd_pr__pfet_g5v0d10v5 ad=0.98 pd=7.28 as=0.98 ps=7.28 w=7 l=0.5
X153 SRC_BDY_HVC a_1368_5960# DRN_HVC SRC_BDY_HVC sky130_fd_pr__nfet_g5v0d10v5 ad=13.9 pd=41.39 as=15.1 ps=21.51 w=20 l=0.5
X154 a_1368_5960# a_1268_5934# SRC_BDY_HVC SRC_BDY_HVC sky130_fd_pr__nfet_g5v0d10v5 ad=0.98 pd=7.28 as=0.98 ps=7.28 w=7 l=0.5
X155 a_1368_5960# a_1268_5934# DRN_HVC DRN_HVC sky130_fd_pr__pfet_g5v0d10v5 ad=0.98 pd=7.28 as=0.98 ps=7.28 w=7 l=0.5
X156 SRC_BDY_HVC a_1368_5960# DRN_HVC SRC_BDY_HVC sky130_fd_pr__nfet_g5v0d10v5 ad=13.9 pd=41.39 as=15.1 ps=21.51 w=20 l=0.5
X157 DRN_HVC a_1268_5934# a_1368_5960# DRN_HVC sky130_fd_pr__pfet_g5v0d10v5 ad=0.98 pd=7.28 as=0.98 ps=7.28 w=7 l=0.5
X158 SRC_BDY_HVC a_1368_5960# DRN_HVC SRC_BDY_HVC sky130_fd_pr__nfet_g5v0d10v5 ad=13.9 pd=41.39 as=15.1 ps=21.51 w=20 l=0.5
X159 DRN_HVC a_1368_5960# SRC_BDY_HVC SRC_BDY_HVC sky130_fd_pr__nfet_g5v0d10v5 ad=15.1 pd=21.51 as=13.9 ps=41.39 w=20 l=0.5
X160 SRC_BDY_HVC a_1368_5960# DRN_HVC SRC_BDY_HVC sky130_fd_pr__nfet_g5v0d10v5 ad=13.9 pd=41.39 as=15.1 ps=21.51 w=20 l=0.5
X161 DRN_HVC a_1368_5960# SRC_BDY_HVC SRC_BDY_HVC sky130_fd_pr__nfet_g5v0d10v5 ad=15.1 pd=21.51 as=13.9 ps=41.39 w=20 l=0.5
X162 SRC_BDY_HVC a_1368_5960# DRN_HVC SRC_BDY_HVC sky130_fd_pr__nfet_g5v0d10v5 ad=13.9 pd=41.39 as=15.1 ps=21.51 w=20 l=0.5
X163 SRC_BDY_HVC a_1368_5960# DRN_HVC SRC_BDY_HVC sky130_fd_pr__nfet_g5v0d10v5 ad=13.9 pd=41.39 as=15.1 ps=21.51 w=20 l=0.5